Version 4
SHEET 1 1556 680
WIRE 224 64 -288 64
WIRE 1040 64 768 64
WIRE 1152 64 1040 64
WIRE 1152 80 1152 64
WIRE 224 96 224 64
WIRE 512 112 400 112
WIRE 768 128 768 64
WIRE 352 144 320 144
WIRE 1040 144 1040 64
WIRE 400 176 400 112
WIRE 400 176 320 176
WIRE 1152 192 1152 160
WIRE 1152 192 1104 192
WIRE 128 208 -160 208
WIRE 400 208 320 208
WIRE 128 240 -32 240
WIRE 1152 240 1152 192
WIRE 400 256 400 208
WIRE 512 256 400 256
WIRE 1040 256 1040 240
WIRE 1040 256 896 256
WIRE 1104 256 1040 256
WIRE -288 288 -288 64
WIRE -160 288 -160 208
WIRE -32 288 -32 240
WIRE 896 304 896 256
WIRE 1152 368 1152 336
WIRE 1216 368 1152 368
WIRE 1360 368 1296 368
WIRE 1152 384 1152 368
WIRE 1360 384 1360 368
WIRE -288 400 -288 368
WIRE -160 400 -160 368
WIRE -32 400 -32 368
WIRE 224 400 224 288
WIRE 1152 544 1152 448
WIRE 1360 544 1360 464
FLAG 1152 544 0
FLAG 1360 544 0
FLAG 224 400 0
FLAG -32 400 0
FLAG -288 400 0
FLAG -160 400 0
FLAG 352 144 0
FLAG 896 384 0
FLAG 768 208 0
SYMBOL pnp 1104 240 R180
WINDOW 0 106 66 Left 2
WINDOW 3 74 23 Left 2
SYMATTR InstName Q1
SYMATTR Value 2N3906
SYMBOL pmos 1104 336 M180
SYMATTR InstName M1
SYMATTR Value IRF9640
SYMBOL res 1136 64 R0
SYMATTR InstName R1
SYMATTR Value 15
SYMBOL cap 1136 384 R0
SYMATTR InstName C1
SYMATTR Value 1µ
SYMBOL res 1200 384 R270
WINDOW 0 32 56 VTop 2
WINDOW 3 0 56 VBottom 2
SYMATTR InstName R2
SYMATTR Value 15
SYMBOL res 1344 368 R0
SYMATTR InstName RL
SYMATTR Value 1k
SYMBOL voltage -288 272 R0
WINDOW 123 0 0 Left 2
WINDOW 39 0 0 Left 2
SYMATTR InstName V1
SYMATTR Value 12
SYMBOL voltage -160 272 R0
WINDOW 123 0 0 Left 2
WINDOW 39 0 0 Left 2
SYMATTR InstName V2
SYMATTR Value PULSE(0v 3.3v 0 0 0 0.05 0.1)
SYMBOL res -48 272 R0
SYMATTR InstName Rset
SYMATTR Value 10k
SYMBOL XTR111 224 192 R0
SYMATTR InstName X1
SYMBOL voltage 768 112 R0
WINDOW 123 0 0 Left 0
WINDOW 39 0 0 Left 0
SYMATTR InstName V3
SYMATTR Value 10.45
SYMBOL voltage 896 288 R0
WINDOW 3 -217 187 Left 2
WINDOW 123 0 0 Left 0
WINDOW 39 0 0 Left 0
SYMATTR InstName V4
SYMATTR Value PULSE(7 8 0 0 0 0.05 0.1)
TEXT 48 536 Left 2 !.tran 0.5s
